# LPF package for MODFLOW-USG generated by Flopy 3.6.0
        53    -1E+30         0  
         0         0         0         0         0         0         0         0         0         0         0         0         0         0         0         0         0         0         0         0         0         0         0         0         0         0         0         0         0         0         0         0         0         0         0         0         0         0         0         0
         0         0         0         0         0         0         0         0         0         0         0         0         0         0         0         0         0         0         0         0         0         0         0         0         0         0         0         0         0         0         0         0         0         0         0         0         0         0         0         0
   1.000000E+00   1.000000E+00   1.000000E+00   1.000000E+00   1.000000E+00   1.000000E+00   1.000000E+00   1.000000E+00   1.000000E+00   1.000000E+00   1.000000E+00   1.000000E+00   1.000000E+00   1.000000E+00   1.000000E+00   1.000000E+00   1.000000E+00   1.000000E+00   1.000000E+00   1.000000E+00   1.000000E+00   1.000000E+00   1.000000E+00   1.000000E+00   1.000000E+00   1.000000E+00   1.000000E+00   1.000000E+00   1.000000E+00   1.000000E+00   1.000000E+00   1.000000E+00   1.000000E+00   1.000000E+00   1.000000E+00   1.000000E+00   1.000000E+00   1.000000E+00   1.000000E+00   1.000000E+00
         0         0         0         0         0         0         0         0         0         0         0         0         0         0         0         0         0         0         0         0         0         0         0         0         0         0         0         0         0         0         0         0         0         0         0         0         0         0         0         0
         0         0         0         0         0         0         0         0         0         0         0         0         0         0         0         0         0         0         0         0         0         0         0         0         0         0         0         0         0         0         0         0         0         0         0         0         0         0         0         0
CONSTANT    8.640000E+02                           #hk layer 1                    
CONSTANT    8.640000E+02                           #vka1                          
CONSTANT    1.000000E-32                           #ss layer 1                    
CONSTANT    8.640000E+02                           #hk layer 2                    
CONSTANT    8.640000E+02                           #vka2                          
CONSTANT    1.000000E-32                           #ss layer 2                    
CONSTANT    8.640000E+02                           #hk layer 3                    
CONSTANT    8.640000E+02                           #vka3                          
CONSTANT    1.000000E-32                           #ss layer 3                    
CONSTANT    8.640000E+02                           #hk layer 4                    
CONSTANT    8.640000E+02                           #vka4                          
CONSTANT    1.000000E-32                           #ss layer 4                    
CONSTANT    8.640000E+02                           #hk layer 5                    
CONSTANT    8.640000E+02                           #vka5                          
CONSTANT    1.000000E-32                           #ss layer 5                    
CONSTANT    8.640000E+02                           #hk layer 6                    
CONSTANT    8.640000E+02                           #vka6                          
CONSTANT    1.000000E-32                           #ss layer 6                    
CONSTANT    8.640000E+02                           #hk layer 7                    
CONSTANT    8.640000E+02                           #vka7                          
CONSTANT    1.000000E-32                           #ss layer 7                    
CONSTANT    8.640000E+02                           #hk layer 8                    
CONSTANT    8.640000E+02                           #vka8                          
CONSTANT    1.000000E-32                           #ss layer 8                    
CONSTANT    8.640000E+02                           #hk layer 9                    
CONSTANT    8.640000E+02                           #vka9                          
CONSTANT    1.000000E-32                           #ss layer 9                    
CONSTANT    8.640000E+02                           #hk layer 10                   
CONSTANT    8.640000E+02                           #vka10                         
CONSTANT    1.000000E-32                           #ss layer 10                   
CONSTANT    8.640000E+02                           #hk layer 11                   
CONSTANT    8.640000E+02                           #vka11                         
CONSTANT    1.000000E-32                           #ss layer 11                   
CONSTANT    8.640000E+02                           #hk layer 12                   
CONSTANT    8.640000E+02                           #vka12                         
CONSTANT    1.000000E-32                           #ss layer 12                   
CONSTANT    8.640000E+02                           #hk layer 13                   
CONSTANT    8.640000E+02                           #vka13                         
CONSTANT    1.000000E-32                           #ss layer 13                   
CONSTANT    8.640000E+02                           #hk layer 14                   
CONSTANT    8.640000E+02                           #vka14                         
CONSTANT    1.000000E-32                           #ss layer 14                   
CONSTANT    8.640000E+02                           #hk layer 15                   
CONSTANT    8.640000E+02                           #vka15                         
CONSTANT    1.000000E-32                           #ss layer 15                   
CONSTANT    8.640000E+02                           #hk layer 16                   
CONSTANT    8.640000E+02                           #vka16                         
CONSTANT    1.000000E-32                           #ss layer 16                   
CONSTANT    8.640000E+02                           #hk layer 17                   
CONSTANT    8.640000E+02                           #vka17                         
CONSTANT    1.000000E-32                           #ss layer 17                   
CONSTANT    8.640000E+02                           #hk layer 18                   
CONSTANT    8.640000E+02                           #vka18                         
CONSTANT    1.000000E-32                           #ss layer 18                   
CONSTANT    8.640000E+02                           #hk layer 19                   
CONSTANT    8.640000E+02                           #vka19                         
CONSTANT    1.000000E-32                           #ss layer 19                   
CONSTANT    8.640000E+02                           #hk layer 20                   
CONSTANT    8.640000E+02                           #vka20                         
CONSTANT    1.000000E-32                           #ss layer 20                   
CONSTANT    8.640000E+02                           #hk layer 21                   
CONSTANT    8.640000E+02                           #vka21                         
CONSTANT    1.000000E-32                           #ss layer 21                   
CONSTANT    8.640000E+02                           #hk layer 22                   
CONSTANT    8.640000E+02                           #vka22                         
CONSTANT    1.000000E-32                           #ss layer 22                   
CONSTANT    8.640000E+02                           #hk layer 23                   
CONSTANT    8.640000E+02                           #vka23                         
CONSTANT    1.000000E-32                           #ss layer 23                   
CONSTANT    8.640000E+02                           #hk layer 24                   
CONSTANT    8.640000E+02                           #vka24                         
CONSTANT    1.000000E-32                           #ss layer 24                   
CONSTANT    8.640000E+02                           #hk layer 25                   
CONSTANT    8.640000E+02                           #vka25                         
CONSTANT    1.000000E-32                           #ss layer 25                   
CONSTANT    8.640000E+02                           #hk layer 26                   
CONSTANT    8.640000E+02                           #vka26                         
CONSTANT    1.000000E-32                           #ss layer 26                   
CONSTANT    8.640000E+02                           #hk layer 27                   
CONSTANT    8.640000E+02                           #vka27                         
CONSTANT    1.000000E-32                           #ss layer 27                   
CONSTANT    8.640000E+02                           #hk layer 28                   
CONSTANT    8.640000E+02                           #vka28                         
CONSTANT    1.000000E-32                           #ss layer 28                   
CONSTANT    8.640000E+02                           #hk layer 29                   
CONSTANT    8.640000E+02                           #vka29                         
CONSTANT    1.000000E-32                           #ss layer 29                   
CONSTANT    8.640000E+02                           #hk layer 30                   
CONSTANT    8.640000E+02                           #vka30                         
CONSTANT    1.000000E-32                           #ss layer 30                   
CONSTANT    8.640000E+02                           #hk layer 31                   
CONSTANT    8.640000E+02                           #vka31                         
CONSTANT    1.000000E-32                           #ss layer 31                   
CONSTANT    8.640000E+02                           #hk layer 32                   
CONSTANT    8.640000E+02                           #vka32                         
CONSTANT    1.000000E-32                           #ss layer 32                   
CONSTANT    8.640000E+02                           #hk layer 33                   
CONSTANT    8.640000E+02                           #vka33                         
CONSTANT    1.000000E-32                           #ss layer 33                   
CONSTANT    8.640000E+02                           #hk layer 34                   
CONSTANT    8.640000E+02                           #vka34                         
CONSTANT    1.000000E-32                           #ss layer 34                   
CONSTANT    8.640000E+02                           #hk layer 35                   
CONSTANT    8.640000E+02                           #vka35                         
CONSTANT    1.000000E-32                           #ss layer 35                   
CONSTANT    8.640000E+02                           #hk layer 36                   
CONSTANT    8.640000E+02                           #vka36                         
CONSTANT    1.000000E-32                           #ss layer 36                   
CONSTANT    8.640000E+02                           #hk layer 37                   
CONSTANT    8.640000E+02                           #vka37                         
CONSTANT    1.000000E-32                           #ss layer 37                   
CONSTANT    8.640000E+02                           #hk layer 38                   
CONSTANT    8.640000E+02                           #vka38                         
CONSTANT    1.000000E-32                           #ss layer 38                   
CONSTANT    8.640000E+02                           #hk layer 39                   
CONSTANT    8.640000E+02                           #vka39                         
CONSTANT    1.000000E-32                           #ss layer 39                   
CONSTANT    8.640000E+02                           #hk layer 40                   
CONSTANT    8.640000E+02                           #vka40                         
CONSTANT    1.000000E-32                           #ss layer 40                   
