# WEL package for MODFLOW-USG generated by Flopy 3.6.0
        40        53  AUX C01
        40         0 # stress period 1
         1         0.14255            35.0
        81         0.14255            35.0
       161         0.14255            35.0
       241         0.14255            35.0
       321         0.14255            35.0
       401         0.14255            35.0
       481         0.14255            35.0
       561         0.14255            35.0
       641         0.14255            35.0
       721         0.14255            35.0
       801         0.14255            35.0
       881         0.14255            35.0
       961         0.14255            35.0
      1041         0.14255            35.0
      1121         0.14255            35.0
      1201         0.14255            35.0
      1281         0.14255            35.0
      1361         0.14255            35.0
      1441         0.14255            35.0
      1521         0.14255            35.0
      1601         0.14255            35.0
      1681         0.14255            35.0
      1761         0.14255            35.0
      1841         0.14255            35.0
      1921         0.14255            35.0
      2001         0.14255            35.0
      2081         0.14255            35.0
      2161         0.14255            35.0
      2241         0.14255            35.0
      2321         0.14255            35.0
      2401         0.14255            35.0
      2481         0.14255            35.0
      2561         0.14255            35.0
      2641         0.14255            35.0
      2721         0.14255            35.0
      2801         0.14255            35.0
      2881         0.14255            35.0
      2961         0.14255            35.0
      3041         0.14255            35.0
      3121         0.14255            35.0
        40         0 # stress period 2
         1         0.14255             0.0
        81         0.14255             0.0
       161         0.14255             0.0
       241         0.14255             0.0
       321         0.14255             0.0
       401         0.14255             0.0
       481         0.14255             0.0
       561         0.14255             0.0
       641         0.14255             0.0
       721         0.14255             0.0
       801         0.14255             0.0
       881         0.14255             0.0
       961         0.14255             0.0
      1041         0.14255             0.0
      1121         0.14255             0.0
      1201         0.14255             0.0
      1281         0.14255             0.0
      1361         0.14255             0.0
      1441         0.14255             0.0
      1521         0.14255             0.0
      1601         0.14255             0.0
      1681         0.14255             0.0
      1761         0.14255             0.0
      1841         0.14255             0.0
      1921         0.14255             0.0
      2001         0.14255             0.0
      2081         0.14255             0.0
      2161         0.14255             0.0
      2241         0.14255             0.0
      2321         0.14255             0.0
      2401         0.14255             0.0
      2481         0.14255             0.0
      2561         0.14255             0.0
      2641         0.14255             0.0
      2721         0.14255             0.0
      2801         0.14255             0.0
      2881         0.14255             0.0
      2961         0.14255             0.0
      3041         0.14255             0.0
      3121         0.14255             0.0
