# GHB package for MODFLOW-USG generated by Flopy 3.6.0
        40         0  AUX C01
        40         0 # stress period 1
        80             1.0          1728.0            35.0
       160             1.0          1728.0            35.0
       240             1.0          1728.0            35.0
       320             1.0          1728.0            35.0
       400             1.0          1728.0            35.0
       480             1.0          1728.0            35.0
       560             1.0          1728.0            35.0
       640             1.0          1728.0            35.0
       720             1.0          1728.0            35.0
       800             1.0          1728.0            35.0
       880             1.0          1728.0            35.0
       960             1.0          1728.0            35.0
      1040             1.0          1728.0            35.0
      1120             1.0          1728.0            35.0
      1200             1.0          1728.0            35.0
      1280             1.0          1728.0            35.0
      1360             1.0          1728.0            35.0
      1440             1.0          1728.0            35.0
      1520             1.0          1728.0            35.0
      1600             1.0          1728.0            35.0
      1680             1.0          1728.0            35.0
      1760             1.0          1728.0            35.0
      1840             1.0          1728.0            35.0
      1920             1.0          1728.0            35.0
      2000             1.0          1728.0            35.0
      2080             1.0          1728.0            35.0
      2160             1.0          1728.0            35.0
      2240             1.0          1728.0            35.0
      2320             1.0          1728.0            35.0
      2400             1.0          1728.0            35.0
      2480             1.0          1728.0            35.0
      2560             1.0          1728.0            35.0
      2640             1.0          1728.0            35.0
      2720             1.0          1728.0            35.0
      2800             1.0          1728.0            35.0
      2880             1.0          1728.0            35.0
      2960             1.0          1728.0            35.0
      3040             1.0          1728.0            35.0
      3120             1.0          1728.0            35.0
      3200             1.0          1728.0            35.0
        -1         0 # stress period 2
