# DISU package for MODFLOW-USG generated by Flopy 3.6.0
3200 40 15760 0 2 4 2 0 
  0  0  0  0  0  0  0  0  0  0  0  0  0  0  0  0  0  0  0  0  0  0  0  0  0  0  0  0  0  0  0  0  0  0  0  0  0  0  0  0
INTERNAL               1    (40I10) -1 #nodelay                       
        80        80        80        80        80        80        80        80        80        80        80        80        80        80        80        80        80        80        80        80        80        80        80        80        80        80        80        80        80        80        80        80        80        80        80        80        80        80        80        80
INTERNAL               1  (80E15.6) -1 #top layer 1                   
   1.000000E+00   1.000000E+00   1.000000E+00   1.000000E+00   1.000000E+00   1.000000E+00   1.000000E+00   1.000000E+00   1.000000E+00   1.000000E+00   1.000000E+00   1.000000E+00   1.000000E+00   1.000000E+00   1.000000E+00   1.000000E+00   1.000000E+00   1.000000E+00   1.000000E+00   1.000000E+00   1.000000E+00   1.000000E+00   1.000000E+00   1.000000E+00   1.000000E+00   1.000000E+00   1.000000E+00   1.000000E+00   1.000000E+00   1.000000E+00   1.000000E+00   1.000000E+00   1.000000E+00   1.000000E+00   1.000000E+00   1.000000E+00   1.000000E+00   1.000000E+00   1.000000E+00   1.000000E+00   1.000000E+00   1.000000E+00   1.000000E+00   1.000000E+00   1.000000E+00   1.000000E+00   1.000000E+00   1.000000E+00   1.000000E+00   1.000000E+00   1.000000E+00   1.000000E+00   1.000000E+00   1.000000E+00   1.000000E+00   1.000000E+00   1.000000E+00   1.000000E+00   1.000000E+00   1.000000E+00   1.000000E+00   1.000000E+00   1.000000E+00   1.000000E+00   1.000000E+00   1.000000E+00   1.000000E+00   1.000000E+00   1.000000E+00   1.000000E+00   1.000000E+00   1.000000E+00   1.000000E+00   1.000000E+00   1.000000E+00   1.000000E+00   1.000000E+00   1.000000E+00   1.000000E+00   1.000000E+00
INTERNAL               1  (80E15.6) -1 #top layer 2                   
   9.750000E-01   9.750000E-01   9.750000E-01   9.750000E-01   9.750000E-01   9.750000E-01   9.750000E-01   9.750000E-01   9.750000E-01   9.750000E-01   9.750000E-01   9.750000E-01   9.750000E-01   9.750000E-01   9.750000E-01   9.750000E-01   9.750000E-01   9.750000E-01   9.750000E-01   9.750000E-01   9.750000E-01   9.750000E-01   9.750000E-01   9.750000E-01   9.750000E-01   9.750000E-01   9.750000E-01   9.750000E-01   9.750000E-01   9.750000E-01   9.750000E-01   9.750000E-01   9.750000E-01   9.750000E-01   9.750000E-01   9.750000E-01   9.750000E-01   9.750000E-01   9.750000E-01   9.750000E-01   9.750000E-01   9.750000E-01   9.750000E-01   9.750000E-01   9.750000E-01   9.750000E-01   9.750000E-01   9.750000E-01   9.750000E-01   9.750000E-01   9.750000E-01   9.750000E-01   9.750000E-01   9.750000E-01   9.750000E-01   9.750000E-01   9.750000E-01   9.750000E-01   9.750000E-01   9.750000E-01   9.750000E-01   9.750000E-01   9.750000E-01   9.750000E-01   9.750000E-01   9.750000E-01   9.750000E-01   9.750000E-01   9.750000E-01   9.750000E-01   9.750000E-01   9.750000E-01   9.750000E-01   9.750000E-01   9.750000E-01   9.750000E-01   9.750000E-01   9.750000E-01   9.750000E-01   9.750000E-01
INTERNAL               1  (80E15.6) -1 #top layer 3                   
   9.500000E-01   9.500000E-01   9.500000E-01   9.500000E-01   9.500000E-01   9.500000E-01   9.500000E-01   9.500000E-01   9.500000E-01   9.500000E-01   9.500000E-01   9.500000E-01   9.500000E-01   9.500000E-01   9.500000E-01   9.500000E-01   9.500000E-01   9.500000E-01   9.500000E-01   9.500000E-01   9.500000E-01   9.500000E-01   9.500000E-01   9.500000E-01   9.500000E-01   9.500000E-01   9.500000E-01   9.500000E-01   9.500000E-01   9.500000E-01   9.500000E-01   9.500000E-01   9.500000E-01   9.500000E-01   9.500000E-01   9.500000E-01   9.500000E-01   9.500000E-01   9.500000E-01   9.500000E-01   9.500000E-01   9.500000E-01   9.500000E-01   9.500000E-01   9.500000E-01   9.500000E-01   9.500000E-01   9.500000E-01   9.500000E-01   9.500000E-01   9.500000E-01   9.500000E-01   9.500000E-01   9.500000E-01   9.500000E-01   9.500000E-01   9.500000E-01   9.500000E-01   9.500000E-01   9.500000E-01   9.500000E-01   9.500000E-01   9.500000E-01   9.500000E-01   9.500000E-01   9.500000E-01   9.500000E-01   9.500000E-01   9.500000E-01   9.500000E-01   9.500000E-01   9.500000E-01   9.500000E-01   9.500000E-01   9.500000E-01   9.500000E-01   9.500000E-01   9.500000E-01   9.500000E-01   9.500000E-01
INTERNAL               1  (80E15.6) -1 #top layer 4                   
   9.250000E-01   9.250000E-01   9.250000E-01   9.250000E-01   9.250000E-01   9.250000E-01   9.250000E-01   9.250000E-01   9.250000E-01   9.250000E-01   9.250000E-01   9.250000E-01   9.250000E-01   9.250000E-01   9.250000E-01   9.250000E-01   9.250000E-01   9.250000E-01   9.250000E-01   9.250000E-01   9.250000E-01   9.250000E-01   9.250000E-01   9.250000E-01   9.250000E-01   9.250000E-01   9.250000E-01   9.250000E-01   9.250000E-01   9.250000E-01   9.250000E-01   9.250000E-01   9.250000E-01   9.250000E-01   9.250000E-01   9.250000E-01   9.250000E-01   9.250000E-01   9.250000E-01   9.250000E-01   9.250000E-01   9.250000E-01   9.250000E-01   9.250000E-01   9.250000E-01   9.250000E-01   9.250000E-01   9.250000E-01   9.250000E-01   9.250000E-01   9.250000E-01   9.250000E-01   9.250000E-01   9.250000E-01   9.250000E-01   9.250000E-01   9.250000E-01   9.250000E-01   9.250000E-01   9.250000E-01   9.250000E-01   9.250000E-01   9.250000E-01   9.250000E-01   9.250000E-01   9.250000E-01   9.250000E-01   9.250000E-01   9.250000E-01   9.250000E-01   9.250000E-01   9.250000E-01   9.250000E-01   9.250000E-01   9.250000E-01   9.250000E-01   9.250000E-01   9.250000E-01   9.250000E-01   9.250000E-01
INTERNAL               1  (80E15.6) -1 #top layer 5                   
   9.000000E-01   9.000000E-01   9.000000E-01   9.000000E-01   9.000000E-01   9.000000E-01   9.000000E-01   9.000000E-01   9.000000E-01   9.000000E-01   9.000000E-01   9.000000E-01   9.000000E-01   9.000000E-01   9.000000E-01   9.000000E-01   9.000000E-01   9.000000E-01   9.000000E-01   9.000000E-01   9.000000E-01   9.000000E-01   9.000000E-01   9.000000E-01   9.000000E-01   9.000000E-01   9.000000E-01   9.000000E-01   9.000000E-01   9.000000E-01   9.000000E-01   9.000000E-01   9.000000E-01   9.000000E-01   9.000000E-01   9.000000E-01   9.000000E-01   9.000000E-01   9.000000E-01   9.000000E-01   9.000000E-01   9.000000E-01   9.000000E-01   9.000000E-01   9.000000E-01   9.000000E-01   9.000000E-01   9.000000E-01   9.000000E-01   9.000000E-01   9.000000E-01   9.000000E-01   9.000000E-01   9.000000E-01   9.000000E-01   9.000000E-01   9.000000E-01   9.000000E-01   9.000000E-01   9.000000E-01   9.000000E-01   9.000000E-01   9.000000E-01   9.000000E-01   9.000000E-01   9.000000E-01   9.000000E-01   9.000000E-01   9.000000E-01   9.000000E-01   9.000000E-01   9.000000E-01   9.000000E-01   9.000000E-01   9.000000E-01   9.000000E-01   9.000000E-01   9.000000E-01   9.000000E-01   9.000000E-01
INTERNAL               1  (80E15.6) -1 #top layer 6                   
   8.750000E-01   8.750000E-01   8.750000E-01   8.750000E-01   8.750000E-01   8.750000E-01   8.750000E-01   8.750000E-01   8.750000E-01   8.750000E-01   8.750000E-01   8.750000E-01   8.750000E-01   8.750000E-01   8.750000E-01   8.750000E-01   8.750000E-01   8.750000E-01   8.750000E-01   8.750000E-01   8.750000E-01   8.750000E-01   8.750000E-01   8.750000E-01   8.750000E-01   8.750000E-01   8.750000E-01   8.750000E-01   8.750000E-01   8.750000E-01   8.750000E-01   8.750000E-01   8.750000E-01   8.750000E-01   8.750000E-01   8.750000E-01   8.750000E-01   8.750000E-01   8.750000E-01   8.750000E-01   8.750000E-01   8.750000E-01   8.750000E-01   8.750000E-01   8.750000E-01   8.750000E-01   8.750000E-01   8.750000E-01   8.750000E-01   8.750000E-01   8.750000E-01   8.750000E-01   8.750000E-01   8.750000E-01   8.750000E-01   8.750000E-01   8.750000E-01   8.750000E-01   8.750000E-01   8.750000E-01   8.750000E-01   8.750000E-01   8.750000E-01   8.750000E-01   8.750000E-01   8.750000E-01   8.750000E-01   8.750000E-01   8.750000E-01   8.750000E-01   8.750000E-01   8.750000E-01   8.750000E-01   8.750000E-01   8.750000E-01   8.750000E-01   8.750000E-01   8.750000E-01   8.750000E-01   8.750000E-01
INTERNAL               1  (80E15.6) -1 #top layer 7                   
   8.500000E-01   8.500000E-01   8.500000E-01   8.500000E-01   8.500000E-01   8.500000E-01   8.500000E-01   8.500000E-01   8.500000E-01   8.500000E-01   8.500000E-01   8.500000E-01   8.500000E-01   8.500000E-01   8.500000E-01   8.500000E-01   8.500000E-01   8.500000E-01   8.500000E-01   8.500000E-01   8.500000E-01   8.500000E-01   8.500000E-01   8.500000E-01   8.500000E-01   8.500000E-01   8.500000E-01   8.500000E-01   8.500000E-01   8.500000E-01   8.500000E-01   8.500000E-01   8.500000E-01   8.500000E-01   8.500000E-01   8.500000E-01   8.500000E-01   8.500000E-01   8.500000E-01   8.500000E-01   8.500000E-01   8.500000E-01   8.500000E-01   8.500000E-01   8.500000E-01   8.500000E-01   8.500000E-01   8.500000E-01   8.500000E-01   8.500000E-01   8.500000E-01   8.500000E-01   8.500000E-01   8.500000E-01   8.500000E-01   8.500000E-01   8.500000E-01   8.500000E-01   8.500000E-01   8.500000E-01   8.500000E-01   8.500000E-01   8.500000E-01   8.500000E-01   8.500000E-01   8.500000E-01   8.500000E-01   8.500000E-01   8.500000E-01   8.500000E-01   8.500000E-01   8.500000E-01   8.500000E-01   8.500000E-01   8.500000E-01   8.500000E-01   8.500000E-01   8.500000E-01   8.500000E-01   8.500000E-01
INTERNAL               1  (80E15.6) -1 #top layer 8                   
   8.250000E-01   8.250000E-01   8.250000E-01   8.250000E-01   8.250000E-01   8.250000E-01   8.250000E-01   8.250000E-01   8.250000E-01   8.250000E-01   8.250000E-01   8.250000E-01   8.250000E-01   8.250000E-01   8.250000E-01   8.250000E-01   8.250000E-01   8.250000E-01   8.250000E-01   8.250000E-01   8.250000E-01   8.250000E-01   8.250000E-01   8.250000E-01   8.250000E-01   8.250000E-01   8.250000E-01   8.250000E-01   8.250000E-01   8.250000E-01   8.250000E-01   8.250000E-01   8.250000E-01   8.250000E-01   8.250000E-01   8.250000E-01   8.250000E-01   8.250000E-01   8.250000E-01   8.250000E-01   8.250000E-01   8.250000E-01   8.250000E-01   8.250000E-01   8.250000E-01   8.250000E-01   8.250000E-01   8.250000E-01   8.250000E-01   8.250000E-01   8.250000E-01   8.250000E-01   8.250000E-01   8.250000E-01   8.250000E-01   8.250000E-01   8.250000E-01   8.250000E-01   8.250000E-01   8.250000E-01   8.250000E-01   8.250000E-01   8.250000E-01   8.250000E-01   8.250000E-01   8.250000E-01   8.250000E-01   8.250000E-01   8.250000E-01   8.250000E-01   8.250000E-01   8.250000E-01   8.250000E-01   8.250000E-01   8.250000E-01   8.250000E-01   8.250000E-01   8.250000E-01   8.250000E-01   8.250000E-01
INTERNAL               1  (80E15.6) -1 #top layer 9                   
   8.000000E-01   8.000000E-01   8.000000E-01   8.000000E-01   8.000000E-01   8.000000E-01   8.000000E-01   8.000000E-01   8.000000E-01   8.000000E-01   8.000000E-01   8.000000E-01   8.000000E-01   8.000000E-01   8.000000E-01   8.000000E-01   8.000000E-01   8.000000E-01   8.000000E-01   8.000000E-01   8.000000E-01   8.000000E-01   8.000000E-01   8.000000E-01   8.000000E-01   8.000000E-01   8.000000E-01   8.000000E-01   8.000000E-01   8.000000E-01   8.000000E-01   8.000000E-01   8.000000E-01   8.000000E-01   8.000000E-01   8.000000E-01   8.000000E-01   8.000000E-01   8.000000E-01   8.000000E-01   8.000000E-01   8.000000E-01   8.000000E-01   8.000000E-01   8.000000E-01   8.000000E-01   8.000000E-01   8.000000E-01   8.000000E-01   8.000000E-01   8.000000E-01   8.000000E-01   8.000000E-01   8.000000E-01   8.000000E-01   8.000000E-01   8.000000E-01   8.000000E-01   8.000000E-01   8.000000E-01   8.000000E-01   8.000000E-01   8.000000E-01   8.000000E-01   8.000000E-01   8.000000E-01   8.000000E-01   8.000000E-01   8.000000E-01   8.000000E-01   8.000000E-01   8.000000E-01   8.000000E-01   8.000000E-01   8.000000E-01   8.000000E-01   8.000000E-01   8.000000E-01   8.000000E-01   8.000000E-01
INTERNAL               1  (80E15.6) -1 #top layer 10                  
   7.750000E-01   7.750000E-01   7.750000E-01   7.750000E-01   7.750000E-01   7.750000E-01   7.750000E-01   7.750000E-01   7.750000E-01   7.750000E-01   7.750000E-01   7.750000E-01   7.750000E-01   7.750000E-01   7.750000E-01   7.750000E-01   7.750000E-01   7.750000E-01   7.750000E-01   7.750000E-01   7.750000E-01   7.750000E-01   7.750000E-01   7.750000E-01   7.750000E-01   7.750000E-01   7.750000E-01   7.750000E-01   7.750000E-01   7.750000E-01   7.750000E-01   7.750000E-01   7.750000E-01   7.750000E-01   7.750000E-01   7.750000E-01   7.750000E-01   7.750000E-01   7.750000E-01   7.750000E-01   7.750000E-01   7.750000E-01   7.750000E-01   7.750000E-01   7.750000E-01   7.750000E-01   7.750000E-01   7.750000E-01   7.750000E-01   7.750000E-01   7.750000E-01   7.750000E-01   7.750000E-01   7.750000E-01   7.750000E-01   7.750000E-01   7.750000E-01   7.750000E-01   7.750000E-01   7.750000E-01   7.750000E-01   7.750000E-01   7.750000E-01   7.750000E-01   7.750000E-01   7.750000E-01   7.750000E-01   7.750000E-01   7.750000E-01   7.750000E-01   7.750000E-01   7.750000E-01   7.750000E-01   7.750000E-01   7.750000E-01   7.750000E-01   7.750000E-01   7.750000E-01   7.750000E-01   7.750000E-01
INTERNAL               1  (80E15.6) -1 #top layer 11                  
   7.500000E-01   7.500000E-01   7.500000E-01   7.500000E-01   7.500000E-01   7.500000E-01   7.500000E-01   7.500000E-01   7.500000E-01   7.500000E-01   7.500000E-01   7.500000E-01   7.500000E-01   7.500000E-01   7.500000E-01   7.500000E-01   7.500000E-01   7.500000E-01   7.500000E-01   7.500000E-01   7.500000E-01   7.500000E-01   7.500000E-01   7.500000E-01   7.500000E-01   7.500000E-01   7.500000E-01   7.500000E-01   7.500000E-01   7.500000E-01   7.500000E-01   7.500000E-01   7.500000E-01   7.500000E-01   7.500000E-01   7.500000E-01   7.500000E-01   7.500000E-01   7.500000E-01   7.500000E-01   7.500000E-01   7.500000E-01   7.500000E-01   7.500000E-01   7.500000E-01   7.500000E-01   7.500000E-01   7.500000E-01   7.500000E-01   7.500000E-01   7.500000E-01   7.500000E-01   7.500000E-01   7.500000E-01   7.500000E-01   7.500000E-01   7.500000E-01   7.500000E-01   7.500000E-01   7.500000E-01   7.500000E-01   7.500000E-01   7.500000E-01   7.500000E-01   7.500000E-01   7.500000E-01   7.500000E-01   7.500000E-01   7.500000E-01   7.500000E-01   7.500000E-01   7.500000E-01   7.500000E-01   7.500000E-01   7.500000E-01   7.500000E-01   7.500000E-01   7.500000E-01   7.500000E-01   7.500000E-01
INTERNAL               1  (80E15.6) -1 #top layer 12                  
   7.250000E-01   7.250000E-01   7.250000E-01   7.250000E-01   7.250000E-01   7.250000E-01   7.250000E-01   7.250000E-01   7.250000E-01   7.250000E-01   7.250000E-01   7.250000E-01   7.250000E-01   7.250000E-01   7.250000E-01   7.250000E-01   7.250000E-01   7.250000E-01   7.250000E-01   7.250000E-01   7.250000E-01   7.250000E-01   7.250000E-01   7.250000E-01   7.250000E-01   7.250000E-01   7.250000E-01   7.250000E-01   7.250000E-01   7.250000E-01   7.250000E-01   7.250000E-01   7.250000E-01   7.250000E-01   7.250000E-01   7.250000E-01   7.250000E-01   7.250000E-01   7.250000E-01   7.250000E-01   7.250000E-01   7.250000E-01   7.250000E-01   7.250000E-01   7.250000E-01   7.250000E-01   7.250000E-01   7.250000E-01   7.250000E-01   7.250000E-01   7.250000E-01   7.250000E-01   7.250000E-01   7.250000E-01   7.250000E-01   7.250000E-01   7.250000E-01   7.250000E-01   7.250000E-01   7.250000E-01   7.250000E-01   7.250000E-01   7.250000E-01   7.250000E-01   7.250000E-01   7.250000E-01   7.250000E-01   7.250000E-01   7.250000E-01   7.250000E-01   7.250000E-01   7.250000E-01   7.250000E-01   7.250000E-01   7.250000E-01   7.250000E-01   7.250000E-01   7.250000E-01   7.250000E-01   7.250000E-01
INTERNAL               1  (80E15.6) -1 #top layer 13                  
   7.000000E-01   7.000000E-01   7.000000E-01   7.000000E-01   7.000000E-01   7.000000E-01   7.000000E-01   7.000000E-01   7.000000E-01   7.000000E-01   7.000000E-01   7.000000E-01   7.000000E-01   7.000000E-01   7.000000E-01   7.000000E-01   7.000000E-01   7.000000E-01   7.000000E-01   7.000000E-01   7.000000E-01   7.000000E-01   7.000000E-01   7.000000E-01   7.000000E-01   7.000000E-01   7.000000E-01   7.000000E-01   7.000000E-01   7.000000E-01   7.000000E-01   7.000000E-01   7.000000E-01   7.000000E-01   7.000000E-01   7.000000E-01   7.000000E-01   7.000000E-01   7.000000E-01   7.000000E-01   7.000000E-01   7.000000E-01   7.000000E-01   7.000000E-01   7.000000E-01   7.000000E-01   7.000000E-01   7.000000E-01   7.000000E-01   7.000000E-01   7.000000E-01   7.000000E-01   7.000000E-01   7.000000E-01   7.000000E-01   7.000000E-01   7.000000E-01   7.000000E-01   7.000000E-01   7.000000E-01   7.000000E-01   7.000000E-01   7.000000E-01   7.000000E-01   7.000000E-01   7.000000E-01   7.000000E-01   7.000000E-01   7.000000E-01   7.000000E-01   7.000000E-01   7.000000E-01   7.000000E-01   7.000000E-01   7.000000E-01   7.000000E-01   7.000000E-01   7.000000E-01   7.000000E-01   7.000000E-01
INTERNAL               1  (80E15.6) -1 #top layer 14                  
   6.750000E-01   6.750000E-01   6.750000E-01   6.750000E-01   6.750000E-01   6.750000E-01   6.750000E-01   6.750000E-01   6.750000E-01   6.750000E-01   6.750000E-01   6.750000E-01   6.750000E-01   6.750000E-01   6.750000E-01   6.750000E-01   6.750000E-01   6.750000E-01   6.750000E-01   6.750000E-01   6.750000E-01   6.750000E-01   6.750000E-01   6.750000E-01   6.750000E-01   6.750000E-01   6.750000E-01   6.750000E-01   6.750000E-01   6.750000E-01   6.750000E-01   6.750000E-01   6.750000E-01   6.750000E-01   6.750000E-01   6.750000E-01   6.750000E-01   6.750000E-01   6.750000E-01   6.750000E-01   6.750000E-01   6.750000E-01   6.750000E-01   6.750000E-01   6.750000E-01   6.750000E-01   6.750000E-01   6.750000E-01   6.750000E-01   6.750000E-01   6.750000E-01   6.750000E-01   6.750000E-01   6.750000E-01   6.750000E-01   6.750000E-01   6.750000E-01   6.750000E-01   6.750000E-01   6.750000E-01   6.750000E-01   6.750000E-01   6.750000E-01   6.750000E-01   6.750000E-01   6.750000E-01   6.750000E-01   6.750000E-01   6.750000E-01   6.750000E-01   6.750000E-01   6.750000E-01   6.750000E-01   6.750000E-01   6.750000E-01   6.750000E-01   6.750000E-01   6.750000E-01   6.750000E-01   6.750000E-01
INTERNAL               1  (80E15.6) -1 #top layer 15                  
   6.500000E-01   6.500000E-01   6.500000E-01   6.500000E-01   6.500000E-01   6.500000E-01   6.500000E-01   6.500000E-01   6.500000E-01   6.500000E-01   6.500000E-01   6.500000E-01   6.500000E-01   6.500000E-01   6.500000E-01   6.500000E-01   6.500000E-01   6.500000E-01   6.500000E-01   6.500000E-01   6.500000E-01   6.500000E-01   6.500000E-01   6.500000E-01   6.500000E-01   6.500000E-01   6.500000E-01   6.500000E-01   6.500000E-01   6.500000E-01   6.500000E-01   6.500000E-01   6.500000E-01   6.500000E-01   6.500000E-01   6.500000E-01   6.500000E-01   6.500000E-01   6.500000E-01   6.500000E-01   6.500000E-01   6.500000E-01   6.500000E-01   6.500000E-01   6.500000E-01   6.500000E-01   6.500000E-01   6.500000E-01   6.500000E-01   6.500000E-01   6.500000E-01   6.500000E-01   6.500000E-01   6.500000E-01   6.500000E-01   6.500000E-01   6.500000E-01   6.500000E-01   6.500000E-01   6.500000E-01   6.500000E-01   6.500000E-01   6.500000E-01   6.500000E-01   6.500000E-01   6.500000E-01   6.500000E-01   6.500000E-01   6.500000E-01   6.500000E-01   6.500000E-01   6.500000E-01   6.500000E-01   6.500000E-01   6.500000E-01   6.500000E-01   6.500000E-01   6.500000E-01   6.500000E-01   6.500000E-01
INTERNAL               1  (80E15.6) -1 #top layer 16                  
   6.250000E-01   6.250000E-01   6.250000E-01   6.250000E-01   6.250000E-01   6.250000E-01   6.250000E-01   6.250000E-01   6.250000E-01   6.250000E-01   6.250000E-01   6.250000E-01   6.250000E-01   6.250000E-01   6.250000E-01   6.250000E-01   6.250000E-01   6.250000E-01   6.250000E-01   6.250000E-01   6.250000E-01   6.250000E-01   6.250000E-01   6.250000E-01   6.250000E-01   6.250000E-01   6.250000E-01   6.250000E-01   6.250000E-01   6.250000E-01   6.250000E-01   6.250000E-01   6.250000E-01   6.250000E-01   6.250000E-01   6.250000E-01   6.250000E-01   6.250000E-01   6.250000E-01   6.250000E-01   6.250000E-01   6.250000E-01   6.250000E-01   6.250000E-01   6.250000E-01   6.250000E-01   6.250000E-01   6.250000E-01   6.250000E-01   6.250000E-01   6.250000E-01   6.250000E-01   6.250000E-01   6.250000E-01   6.250000E-01   6.250000E-01   6.250000E-01   6.250000E-01   6.250000E-01   6.250000E-01   6.250000E-01   6.250000E-01   6.250000E-01   6.250000E-01   6.250000E-01   6.250000E-01   6.250000E-01   6.250000E-01   6.250000E-01   6.250000E-01   6.250000E-01   6.250000E-01   6.250000E-01   6.250000E-01   6.250000E-01   6.250000E-01   6.250000E-01   6.250000E-01   6.250000E-01   6.250000E-01
INTERNAL               1  (80E15.6) -1 #top layer 17                  
   6.000000E-01   6.000000E-01   6.000000E-01   6.000000E-01   6.000000E-01   6.000000E-01   6.000000E-01   6.000000E-01   6.000000E-01   6.000000E-01   6.000000E-01   6.000000E-01   6.000000E-01   6.000000E-01   6.000000E-01   6.000000E-01   6.000000E-01   6.000000E-01   6.000000E-01   6.000000E-01   6.000000E-01   6.000000E-01   6.000000E-01   6.000000E-01   6.000000E-01   6.000000E-01   6.000000E-01   6.000000E-01   6.000000E-01   6.000000E-01   6.000000E-01   6.000000E-01   6.000000E-01   6.000000E-01   6.000000E-01   6.000000E-01   6.000000E-01   6.000000E-01   6.000000E-01   6.000000E-01   6.000000E-01   6.000000E-01   6.000000E-01   6.000000E-01   6.000000E-01   6.000000E-01   6.000000E-01   6.000000E-01   6.000000E-01   6.000000E-01   6.000000E-01   6.000000E-01   6.000000E-01   6.000000E-01   6.000000E-01   6.000000E-01   6.000000E-01   6.000000E-01   6.000000E-01   6.000000E-01   6.000000E-01   6.000000E-01   6.000000E-01   6.000000E-01   6.000000E-01   6.000000E-01   6.000000E-01   6.000000E-01   6.000000E-01   6.000000E-01   6.000000E-01   6.000000E-01   6.000000E-01   6.000000E-01   6.000000E-01   6.000000E-01   6.000000E-01   6.000000E-01   6.000000E-01   6.000000E-01
INTERNAL               1  (80E15.6) -1 #top layer 18                  
   5.750000E-01   5.750000E-01   5.750000E-01   5.750000E-01   5.750000E-01   5.750000E-01   5.750000E-01   5.750000E-01   5.750000E-01   5.750000E-01   5.750000E-01   5.750000E-01   5.750000E-01   5.750000E-01   5.750000E-01   5.750000E-01   5.750000E-01   5.750000E-01   5.750000E-01   5.750000E-01   5.750000E-01   5.750000E-01   5.750000E-01   5.750000E-01   5.750000E-01   5.750000E-01   5.750000E-01   5.750000E-01   5.750000E-01   5.750000E-01   5.750000E-01   5.750000E-01   5.750000E-01   5.750000E-01   5.750000E-01   5.750000E-01   5.750000E-01   5.750000E-01   5.750000E-01   5.750000E-01   5.750000E-01   5.750000E-01   5.750000E-01   5.750000E-01   5.750000E-01   5.750000E-01   5.750000E-01   5.750000E-01   5.750000E-01   5.750000E-01   5.750000E-01   5.750000E-01   5.750000E-01   5.750000E-01   5.750000E-01   5.750000E-01   5.750000E-01   5.750000E-01   5.750000E-01   5.750000E-01   5.750000E-01   5.750000E-01   5.750000E-01   5.750000E-01   5.750000E-01   5.750000E-01   5.750000E-01   5.750000E-01   5.750000E-01   5.750000E-01   5.750000E-01   5.750000E-01   5.750000E-01   5.750000E-01   5.750000E-01   5.750000E-01   5.750000E-01   5.750000E-01   5.750000E-01   5.750000E-01
INTERNAL               1  (80E15.6) -1 #top layer 19                  
   5.500000E-01   5.500000E-01   5.500000E-01   5.500000E-01   5.500000E-01   5.500000E-01   5.500000E-01   5.500000E-01   5.500000E-01   5.500000E-01   5.500000E-01   5.500000E-01   5.500000E-01   5.500000E-01   5.500000E-01   5.500000E-01   5.500000E-01   5.500000E-01   5.500000E-01   5.500000E-01   5.500000E-01   5.500000E-01   5.500000E-01   5.500000E-01   5.500000E-01   5.500000E-01   5.500000E-01   5.500000E-01   5.500000E-01   5.500000E-01   5.500000E-01   5.500000E-01   5.500000E-01   5.500000E-01   5.500000E-01   5.500000E-01   5.500000E-01   5.500000E-01   5.500000E-01   5.500000E-01   5.500000E-01   5.500000E-01   5.500000E-01   5.500000E-01   5.500000E-01   5.500000E-01   5.500000E-01   5.500000E-01   5.500000E-01   5.500000E-01   5.500000E-01   5.500000E-01   5.500000E-01   5.500000E-01   5.500000E-01   5.500000E-01   5.500000E-01   5.500000E-01   5.500000E-01   5.500000E-01   5.500000E-01   5.500000E-01   5.500000E-01   5.500000E-01   5.500000E-01   5.500000E-01   5.500000E-01   5.500000E-01   5.500000E-01   5.500000E-01   5.500000E-01   5.500000E-01   5.500000E-01   5.500000E-01   5.500000E-01   5.500000E-01   5.500000E-01   5.500000E-01   5.500000E-01   5.500000E-01
INTERNAL               1  (80E15.6) -1 #top layer 20                  
   5.250000E-01   5.250000E-01   5.250000E-01   5.250000E-01   5.250000E-01   5.250000E-01   5.250000E-01   5.250000E-01   5.250000E-01   5.250000E-01   5.250000E-01   5.250000E-01   5.250000E-01   5.250000E-01   5.250000E-01   5.250000E-01   5.250000E-01   5.250000E-01   5.250000E-01   5.250000E-01   5.250000E-01   5.250000E-01   5.250000E-01   5.250000E-01   5.250000E-01   5.250000E-01   5.250000E-01   5.250000E-01   5.250000E-01   5.250000E-01   5.250000E-01   5.250000E-01   5.250000E-01   5.250000E-01   5.250000E-01   5.250000E-01   5.250000E-01   5.250000E-01   5.250000E-01   5.250000E-01   5.250000E-01   5.250000E-01   5.250000E-01   5.250000E-01   5.250000E-01   5.250000E-01   5.250000E-01   5.250000E-01   5.250000E-01   5.250000E-01   5.250000E-01   5.250000E-01   5.250000E-01   5.250000E-01   5.250000E-01   5.250000E-01   5.250000E-01   5.250000E-01   5.250000E-01   5.250000E-01   5.250000E-01   5.250000E-01   5.250000E-01   5.250000E-01   5.250000E-01   5.250000E-01   5.250000E-01   5.250000E-01   5.250000E-01   5.250000E-01   5.250000E-01   5.250000E-01   5.250000E-01   5.250000E-01   5.250000E-01   5.250000E-01   5.250000E-01   5.250000E-01   5.250000E-01   5.250000E-01
INTERNAL               1  (80E15.6) -1 #top layer 21                  
   5.000000E-01   5.000000E-01   5.000000E-01   5.000000E-01   5.000000E-01   5.000000E-01   5.000000E-01   5.000000E-01   5.000000E-01   5.000000E-01   5.000000E-01   5.000000E-01   5.000000E-01   5.000000E-01   5.000000E-01   5.000000E-01   5.000000E-01   5.000000E-01   5.000000E-01   5.000000E-01   5.000000E-01   5.000000E-01   5.000000E-01   5.000000E-01   5.000000E-01   5.000000E-01   5.000000E-01   5.000000E-01   5.000000E-01   5.000000E-01   5.000000E-01   5.000000E-01   5.000000E-01   5.000000E-01   5.000000E-01   5.000000E-01   5.000000E-01   5.000000E-01   5.000000E-01   5.000000E-01   5.000000E-01   5.000000E-01   5.000000E-01   5.000000E-01   5.000000E-01   5.000000E-01   5.000000E-01   5.000000E-01   5.000000E-01   5.000000E-01   5.000000E-01   5.000000E-01   5.000000E-01   5.000000E-01   5.000000E-01   5.000000E-01   5.000000E-01   5.000000E-01   5.000000E-01   5.000000E-01   5.000000E-01   5.000000E-01   5.000000E-01   5.000000E-01   5.000000E-01   5.000000E-01   5.000000E-01   5.000000E-01   5.000000E-01   5.000000E-01   5.000000E-01   5.000000E-01   5.000000E-01   5.000000E-01   5.000000E-01   5.000000E-01   5.000000E-01   5.000000E-01   5.000000E-01   5.000000E-01
INTERNAL               1  (80E15.6) -1 #top layer 22                  
   4.750000E-01   4.750000E-01   4.750000E-01   4.750000E-01   4.750000E-01   4.750000E-01   4.750000E-01   4.750000E-01   4.750000E-01   4.750000E-01   4.750000E-01   4.750000E-01   4.750000E-01   4.750000E-01   4.750000E-01   4.750000E-01   4.750000E-01   4.750000E-01   4.750000E-01   4.750000E-01   4.750000E-01   4.750000E-01   4.750000E-01   4.750000E-01   4.750000E-01   4.750000E-01   4.750000E-01   4.750000E-01   4.750000E-01   4.750000E-01   4.750000E-01   4.750000E-01   4.750000E-01   4.750000E-01   4.750000E-01   4.750000E-01   4.750000E-01   4.750000E-01   4.750000E-01   4.750000E-01   4.750000E-01   4.750000E-01   4.750000E-01   4.750000E-01   4.750000E-01   4.750000E-01   4.750000E-01   4.750000E-01   4.750000E-01   4.750000E-01   4.750000E-01   4.750000E-01   4.750000E-01   4.750000E-01   4.750000E-01   4.750000E-01   4.750000E-01   4.750000E-01   4.750000E-01   4.750000E-01   4.750000E-01   4.750000E-01   4.750000E-01   4.750000E-01   4.750000E-01   4.750000E-01   4.750000E-01   4.750000E-01   4.750000E-01   4.750000E-01   4.750000E-01   4.750000E-01   4.750000E-01   4.750000E-01   4.750000E-01   4.750000E-01   4.750000E-01   4.750000E-01   4.750000E-01   4.750000E-01
INTERNAL               1  (80E15.6) -1 #top layer 23                  
   4.500000E-01   4.500000E-01   4.500000E-01   4.500000E-01   4.500000E-01   4.500000E-01   4.500000E-01   4.500000E-01   4.500000E-01   4.500000E-01   4.500000E-01   4.500000E-01   4.500000E-01   4.500000E-01   4.500000E-01   4.500000E-01   4.500000E-01   4.500000E-01   4.500000E-01   4.500000E-01   4.500000E-01   4.500000E-01   4.500000E-01   4.500000E-01   4.500000E-01   4.500000E-01   4.500000E-01   4.500000E-01   4.500000E-01   4.500000E-01   4.500000E-01   4.500000E-01   4.500000E-01   4.500000E-01   4.500000E-01   4.500000E-01   4.500000E-01   4.500000E-01   4.500000E-01   4.500000E-01   4.500000E-01   4.500000E-01   4.500000E-01   4.500000E-01   4.500000E-01   4.500000E-01   4.500000E-01   4.500000E-01   4.500000E-01   4.500000E-01   4.500000E-01   4.500000E-01   4.500000E-01   4.500000E-01   4.500000E-01   4.500000E-01   4.500000E-01   4.500000E-01   4.500000E-01   4.500000E-01   4.500000E-01   4.500000E-01   4.500000E-01   4.500000E-01   4.500000E-01   4.500000E-01   4.500000E-01   4.500000E-01   4.500000E-01   4.500000E-01   4.500000E-01   4.500000E-01   4.500000E-01   4.500000E-01   4.500000E-01   4.500000E-01   4.500000E-01   4.500000E-01   4.500000E-01   4.500000E-01