# OC package for MODFLOW-USG generated by Flopy 3.6.0
CONCENTRATION SAVE UNIT 52
HEAD PRINT FORMAT   0
HEAD SAVE UNIT    51
DRAWDOWN PRINT FORMAT   0
COMPACT BUDGET AUX

period 1 step 1 
  print budget
  print head
  save head
  save budget
  save conc

period 2 step 500 
  print budget
  print head
  save head
  save budget
  save conc

