# SMS package for MODFLOW-USG generated by Flopy 3.6.0
1e-05 1e-06 500 50 2 2 2
0.7 0.07 0.3 0.1 200 2.1 0.1 1.0
bcgs 3 0 0 0.1 1.0

